10
Decane
C          0.00000        0.70000        0.00000
C          1.21240        0.00000        0.00000
C          2.42480        0.70000        0.00000
C          3.63730        0.00000        0.00000
C          4.84970        0.70000        0.00000
C          6.06210        0.00000        0.00000
C          7.27460        0.70000        0.00000
C          8.48700        0.00000        0.00000
C          9.69940        0.70010        0.00000
C         10.91190        0.00000        0.00000
