96
CCCCC6Cc2c(cc3c1cc(O)c(CCC)cc1c5cc(CCC(C)C)cc4c(CC(C)C)nc2c3c45)C(CC)C6
C         -1.29926       -0.28909        0.61197
C         -2.03309        0.92434        0.53994
C         -3.38283        0.87241        0.09767
C         -3.98785       -0.32275       -0.29530
C         -3.20140       -1.47539       -0.31835
C         -1.85400       -1.51498        0.14568
C          0.01648       -0.28621        1.14958
C          0.58898        0.96292        1.48256
N         -0.08437        2.11373        1.36456
C         -1.37376        2.11279        0.93473
C         -1.06527       -2.71650        0.16503
C          0.21858       -2.71205        0.77789
C          0.74205       -1.48723        1.30902
C          2.00167       -1.40179        1.96075
C          2.60701       -0.18011        2.25898
C          1.92569        0.99302        1.90365
C          4.03715       -0.16087        2.79877
C          4.77787        1.17047        2.52912
C          4.15389        2.01461        1.40811
C          2.69738        2.29522        1.83145
C         -1.49627       -3.93856       -0.43267
C         -0.72384       -5.10981       -0.47778
C          0.50571       -5.08812        0.15828
C          0.95751       -3.92554        0.78020
C         -2.02189        3.49157        0.94578
C         -1.36273        4.51832       -0.00623
C         -1.44898        4.06413       -1.46356
C         -2.01695        5.90285        0.11233
C         -5.46765       -0.37535       -0.65210
C         -6.37658       -0.73786        0.54719
C         -7.89251       -0.80732        0.21829
C         -8.23157       -1.88369       -0.81518
C         -8.73698       -1.04448        1.48168
C          4.29066        1.34605        0.01499
C          3.70247        2.17593       -1.13475
C          3.81962        1.47586       -2.49289
C          5.25765        1.20007       -2.90159
C          4.05963       -0.50462        4.30770
C          5.46432       -0.67980        4.87855
O          1.29016       -6.20399        0.13227
C         -1.22199       -6.31851       -1.23699
C         -2.08889       -7.25142       -0.38970
C         -2.58045       -8.45283       -1.18850
H         -3.98541        1.77307        0.05472
H         -3.67487       -2.38095       -0.68850
H          2.57478       -2.29420        2.18057
H          4.58993       -0.94228        2.25781
H          5.83719        0.96881        2.32369
H          4.76884        1.78420        3.44118
H          4.69514        2.96907        1.36933
H          2.25320        2.98192        1.10439
H          2.66444        2.79431        2.80610
H         -2.45867       -3.98300       -0.94255
H          1.93888       -3.96407        1.24251
H         -1.95472        3.86663        1.97677
H         -3.09149        3.44429        0.73161
H         -0.30429        4.63020        0.26186
H         -2.49273        3.95568       -1.77798
H         -0.94327        3.10645       -1.61354
H         -0.97186        4.79581       -2.12430
H         -3.07555        5.87310       -0.16956
H         -1.52079        6.61877       -0.55473
H         -1.94480        6.29869        1.13018
H         -5.60030       -1.09457       -1.46898
H         -5.77152        0.59873       -1.05352
H         -6.23159        0.01957        1.32907
H         -6.05361       -1.69254        0.98252
H         -8.20039        0.16104       -0.19477
H         -7.86495       -2.86839       -0.50723
H         -7.80134       -1.64122       -1.79057
H         -9.31670       -1.96075       -0.95542
H         -8.44542       -1.96157        2.00508
H         -9.80127       -1.13483        1.22842
H         -8.64378       -0.20675        2.18044
H          3.81597        0.35915       -0.00639
H          5.35555        1.16596       -0.16895
H          4.19780        3.15266       -1.17889
H          2.63748        2.36551       -0.95897
H          3.34852        2.10641       -3.25685
H          3.25924        0.53331       -2.47389
H          5.85091        2.11959       -2.88650
H          5.29229        0.78458       -3.91293
H          5.72935        0.47251       -2.23464
H          3.49849       -1.42803        4.49747
H          3.54679        0.28555        4.87152
H          5.95569       -1.55695        4.44626
H          5.41422       -0.82303        5.96352
H          6.09660        0.19364        4.69464
H          2.15571       -5.99106        0.51983
H         -0.37128       -6.86918       -1.65737
H         -1.79595       -5.97151       -2.10657
H         -2.95781       -6.70541       -0.00410
H         -1.52375       -7.60822        0.47920
H         -3.13983       -8.13925       -2.07605
H         -3.24472       -9.06910       -0.57349
H         -1.74520       -9.08161       -1.51394
