148
asphaltene2
C         -2.33276        0.26697        0.71999
C         -2.56909       -0.97108        1.37616
C         -4.01769       -1.30896        1.71448
C         -5.14015       -0.39693        1.12173
C         -4.67084        1.02825        0.84995
C         -3.33719        1.24553        0.53466
C         -1.03675        0.52771        0.23699
C          0.01732       -0.35749        0.47200
C         -0.13301       -1.45182        1.35446
C         -1.46025       -1.81383        1.75186
C          1.26279       -0.15140       -0.18608
C          2.35969       -0.96152        0.10770
C          2.21476       -1.77532        1.25741
N          0.98875       -2.06609        1.78835
C          1.40883        0.91102       -1.11082
C          2.52998        1.00389       -1.96910
C          3.48492       -0.04835       -1.93452
C          3.46578       -0.90792       -0.81791
C         -0.77998        1.73067       -0.47350
C          0.44141        1.90385       -1.16177
C         -3.02273        2.52008       -0.00328
C         -1.72298        2.74569       -0.49613
N         -5.63736        1.97964        0.68970
C         -5.33183        3.21716        0.21486
C         -4.02069        3.51282       -0.13024
C          4.49725       -0.55526       -2.83923
C          5.21163       -1.50935       -2.14156
N          4.63757       -1.62380       -0.90041
C          4.82578       -0.36771       -4.20845
C          5.84307       -1.13791       -4.85152
C          6.58334       -2.06196       -4.07218
C          6.27919       -2.21657       -2.69771
C          0.68711        3.09070       -1.90140
C          1.81637        3.18203       -2.73086
C          2.70069        2.11889       -2.80567
C         -1.35227        3.99941       -1.03718
C         -0.17706        4.15635       -1.77148
C         -3.64735        4.83034       -0.76018
C         -2.18440        5.18601       -0.71336
C         -1.72374       -3.11786        2.56880
C         -0.76367       -4.28750        2.27906
C         -1.85317       -2.85428        4.09539
C         -2.10233       -4.08551        4.99471
C         -3.36885       -4.86895        4.67325
C          3.41116       -2.29056        2.03532
C          3.41985       -1.84748        3.51393
C          4.63483       -2.36945        4.31882
C          5.96843       -1.89126        3.73205
C          7.23440       -2.30326        4.50239
C          8.51978       -1.72923        3.83927
C          8.53337       -0.18489        3.86231
C          9.76797        0.43396        3.22328
C          9.78056       -2.30905        4.49349
C          7.66102       -3.00803       -4.58750
C          9.08795       -2.45522       -4.47151
C         10.14651       -3.48140       -4.86133
C          5.93772       -0.99952       -6.37480
C          7.25436       -0.45308       -6.94933
C          7.26647       -0.23367       -8.48576
C          8.65519        0.25878       -8.94113
C          6.84397       -1.47684       -9.29416
C          7.68376       -2.71806       -9.02347
C         -6.51192        4.18966        0.16559
C         -6.58517        5.21107       -0.98912
C         -7.71410        6.24793       -0.92219
C         -7.52857        7.25891       -2.06646
C         -9.08369        5.59753       -0.97435
C         -6.41714       -0.53230        1.99840
C         -7.64154        0.26158        1.54582
H         -4.10853       -1.32821        2.80476
H         -4.22731       -2.32519        1.34982
H         -5.38917       -0.80235        0.12869
H          4.95240       -2.30015       -0.22122
H          4.20583        0.30273       -4.80017
H          6.81679       -2.94051       -2.09106
H          1.99281        4.07455       -3.31281
H          3.57050        2.20509       -3.45389
H          0.04994        5.11797       -2.21714
H         -3.97285        4.79855       -1.80988
H         -4.11809        5.64285       -0.21043
H         -1.92697        5.52244        0.29967
H         -1.99495        6.02432       -1.39340
H         -2.69224       -3.49937        2.22553
H          0.23651       -4.12546        2.69030
H         -0.68121       -4.47505        1.20374
H         -1.12719       -5.21713        2.73041
H         -2.66714       -2.14276        4.27606
H         -0.94096       -2.36182        4.45467
H         -2.16459       -3.74953        6.03831
H         -1.24314       -4.76429        4.95450
H         -4.26236       -4.24865        4.79169
H         -3.46546       -5.72542        5.35142
H         -3.35119       -5.26308        3.65413
H          4.32451       -1.89132        1.59762
H          3.44852       -3.38157        1.95712
H          2.50115       -2.18327        4.00883
H          3.40962       -0.74899        3.56186
H          4.60830       -3.46385        4.35379
H          4.53967       -2.01255        5.35309
H          5.91260       -0.80250        3.65189
H          6.07553       -2.29181        2.71964
H          7.29782       -3.39950        4.50423
H          7.17717       -1.98676        5.55114
H          8.52566       -2.05344        2.79002
H          8.43984        0.17502        4.89385
H          7.67091        0.20350        3.31145
H         10.67484        0.19720        3.78551
H          9.67153        1.52411        3.20283
H          9.88952        0.08388        2.19335
H          9.89792       -1.95678        5.52345
H         10.68013       -2.02410        3.93573
H          9.75494       -3.40305        4.50179
H          7.43750       -3.32623       -5.61001
H          7.60898       -3.93346       -3.99175
H          9.29031       -2.10361       -3.45272
H          9.20927       -1.58551       -5.11928
H         10.13261       -4.35390       -4.19949
H         11.14315       -3.03044       -4.79760
H         10.00154       -3.82554       -5.89027
H          5.13149       -0.33829       -6.72463
H          5.70481       -1.97959       -6.80635
H          8.05462       -1.15268       -6.71589
H          7.50513        0.49534       -6.45734
H          6.55156        0.56301       -8.73192
H          9.46643       -0.28039       -8.43938
H          8.77951        1.32284       -8.71411
H          8.79598        0.13748      -10.02190
H          6.89713       -1.24065      -10.36490
H          5.78962       -1.70641       -9.09862
H          8.73784       -2.47799       -8.86108
H          7.62409       -3.40573       -9.87265
H          7.31666       -3.25005       -8.14087
H         -6.53833        4.71926        1.12580
H         -7.42619        3.58297        0.12284
H         -6.59135        4.67795       -1.94737
H         -5.71413        5.85110       -1.00752
H         -7.62879        6.80750        0.01896
H         -7.36007        6.75670       -3.02567
H         -6.65760        7.89891       -1.87492
H         -8.39812        7.91444       -2.16989
H         -9.13658        4.85267       -1.77377
H         -9.86476        6.34475       -1.14242
H         -9.29959        5.10057       -0.02350
H         -6.19121       -0.25428        3.03475
H         -6.70541       -1.59206        2.01290
H         -7.56099        1.31496        1.83230
H         -8.54540       -0.10721        2.03942
H         -7.78904        0.19593        0.46330
