33
Algaenan monomer (High MW aliphatic2)
C         12.99038      -21.50000        0.00000
C         13.85641      -21.00000        0.00000
C         13.85641      -20.00000        0.00000
C         12.99038      -19.50000        0.00000
C         12.99038      -18.50000        0.00000
C         12.12436      -18.00000        0.00000
C         12.12436      -17.00000        0.00000
C         11.25833      -16.50000        0.00000
C         11.25833      -15.50000        0.00000
C         10.39230      -15.00000        0.00000
C         10.39230      -14.00000        0.00000
C          9.52628      -13.50000        0.00000
C          9.52628      -12.50000        0.00000
C          8.66025      -12.00000        0.00000
C          8.66025      -11.00000        0.00000
C          7.79423      -10.50000        0.00000
C          7.79423       -9.50000        0.00000
C          6.92820       -9.00000        0.00000
C          6.92820       -8.00000        0.00000
C          6.06218       -7.50000        0.00000
C          6.06218       -6.50000        0.00000
C          5.19615       -6.00000        0.00000
O          5.19615       -5.00000        0.00000
C          4.33013       -6.50000        0.00000
C          3.46410       -6.00000        0.00000
C          3.46410       -5.00000        0.00000
C          2.59808       -4.50000        0.00000
C          2.59808       -3.50000        0.00000
C          1.73205       -3.00000        0.00000
C          1.73205       -2.00000        0.00000
C          0.86603       -1.50000        0.00000
C          0.86603       -0.50000        0.00000
O          0.00000        0.00000        0.00000
