24
laPAH2
C          0.88978       -0.11337       -0.01823
C          2.38383       -0.04980       -0.01828
N          3.07388       -1.22210       -0.01849
C          4.42454       -1.20582       -0.01864
C          5.20135       -0.05925       -0.01853
C          4.51449        1.16277       -0.01843
C          4.92324        2.53503       -0.01809
C          6.17369        3.18732       -0.01814
C          6.22042        4.58641       -0.01809
C          5.04643        5.33588       -0.01805
C          3.79491        4.71361       -0.01842
C          3.76758        3.31405       -0.01815
N          2.69946        2.44950       -0.01813
H          1.73289        2.73969       -0.01814
C          3.12087        1.13965       -0.01830
H          0.54118       -1.15070       -0.01819
H          0.49235        0.38317       -0.90872
H          0.49244        0.38319        0.87231
H          4.89154       -2.18711       -0.01890
H          6.28264       -0.11178       -0.01865
H          7.09467        2.61210       -0.01819
H          7.18341        5.09118       -0.01808
H          5.10314        6.42214       -0.01801
H          2.88268        5.30115       -0.01798
