62
PAH2
C          1.71850       -2.05565        0.78971
C          3.12774       -1.47614        0.72074
C          3.87308       -1.90187       -0.55616
C          5.30320       -1.37387       -0.73497
C          6.36364       -2.29683       -0.82762
O          6.07352       -3.62799       -0.64969
C          7.69842       -1.90202       -1.10277
C          8.76598       -2.81962       -1.22257
C         10.06200       -2.36983       -1.47309
C         10.29438       -1.00746       -1.63806
C          9.27603       -0.07058       -1.56140
N          9.56399        1.22115       -1.74580
C          8.57917        2.15213       -1.64492
C          9.03492        3.58510       -1.84046
C          9.04359        4.10289       -3.29980
C          7.66550        4.08050       -3.96493
C          9.59274        5.53577       -3.34214
C          7.23204        1.81194       -1.35430
C          6.18452        2.75804       -1.24506
C          4.85419        2.37158       -1.05735
C          3.72135        3.38179       -1.03915
C          2.58388        3.06715       -2.04809
C          1.43877        4.11240       -2.06779
C          0.35787        3.78693       -3.11290
C          0.75319        4.21579       -0.70540
C          4.60329        1.01741       -0.85428
C          5.59061        0.01412       -0.90926
C          6.93105        0.43829       -1.17902
C          7.96099       -0.52616       -1.27740
H          1.14474       -1.54135        1.56897
H          1.74187       -3.12056        1.03745
H          1.17898       -1.92837       -0.15516
H          3.69098       -1.77098        1.61200
H          3.01676       -0.39415        0.78610
H          3.30390       -1.60477       -1.44659
H          3.86567       -2.99830       -0.57963
H          6.74306       -3.99014       -0.04517
H          8.60597       -3.88787       -1.13296
H         10.88363       -3.07946       -1.54369
H         11.31011       -0.66245       -1.83476
H         10.06887        3.64255       -1.46112
H          8.47522        4.26329       -1.19408
H          9.71593        3.47384       -3.89706
H          6.88974        4.47158       -3.30299
H          7.39412        3.06208       -4.25999
H          7.64475        4.70169       -4.86673
H          8.91093        6.24009       -2.85223
H          9.72528        5.86658       -4.37871
H         10.56697        5.60385       -2.84757
H          6.38907        3.81715       -1.33190
H          4.11570        4.38349       -1.24833
H          3.32652        3.40661       -0.01664
H          2.15118        2.08686       -1.81271
H          3.01436        2.97835       -3.05417
H          1.85963        5.09313       -2.32243
H          0.04676        2.73800       -3.06443
H          0.70259        3.99969       -4.12960
H         -0.53910        4.39874       -2.94720
H          0.35559        3.24280       -0.39729
H         -0.08207        4.92370       -0.74327
H          1.44198        4.57255        0.06338
H          3.56702        0.75236       -0.66335
