48
Peptide Derivative
C          1.34667        1.20226        1.35393
C          1.82044        0.16625        0.32003
C          0.59447       -0.42929       -0.37985
C          2.78803        0.82198       -0.68613
N          4.01682        1.42920       -0.15937
C          5.11215        0.94752        0.48273
O          6.10604        1.67995        0.51816
C          5.16429       -0.48632        1.04570
C          5.84604       -0.50709        2.44166
C          5.03105        0.30996        3.45347
C          6.02828       -1.92802        2.99729
N          5.92626       -1.25829        0.06525
C          5.46510       -1.87811       -1.06186
O          6.27404       -2.15859       -1.94261
C          3.94901       -2.13056       -1.24139
C          3.72226       -3.55325       -1.82673
C          4.21923       -4.64204       -0.86960
C          2.24698       -3.81920       -2.15298
N          3.49682       -1.12167       -2.19920
C          3.08513        0.15897       -2.04804
O          3.03795        0.84482       -3.07684
H          0.66947        0.74429        2.08289
H          0.80786        2.02662        0.87248
H          2.19007        1.62651        1.90797
H          2.28844       -0.64131        0.87837
H          0.07709        0.32007       -0.98775
H         -0.11883       -0.82063        0.35387
H          0.87709       -1.26093       -1.03073
H          2.22730        1.71634       -1.00875
H          4.22728        2.33938       -0.55959
H          4.17378       -0.90368        1.14863
H          6.84372       -0.05485        2.37003
H          4.04348       -0.13427        3.61988
H          4.88794        1.34037        3.11549
H          5.54763        0.35387        4.41860
H          5.09375       -2.49873        2.97031
H          6.36493       -1.89509        4.04105
H          6.78589       -2.48209        2.43422
H          6.90994       -1.01689       -0.02332
H          3.40162       -2.03398       -0.30896
H          4.28465       -3.65341       -2.76529
H          3.66800       -4.61995        0.07615
H          5.28460       -4.52919       -0.64801
H          4.08557       -5.63416       -1.31554
H          1.61210       -3.67684       -1.27251
H          2.10809       -4.84887       -2.50260
H          1.88756       -3.15785       -2.94771
H          3.79728       -1.27899       -3.15732
